Course Project/d2asbegp.m
% Two Area Test Case
% sub transient generators with static exciters, turbine/governors
% 50% constant current active loads
% load modulation
% with power system stabilizers

disp('Two-area test case with subtransient generator models')
disp('Static exciters')
disp('turbine/governors')
% bus data format
% bus:
% col1 number
% col2 voltage magnitude(pu)
% col3 voltage angle(degree)
% col4 p_gen(pu)
% col5 q_gen(pu),
% col6 p_load(pu)
% col7 q_load(pu)
% col8 G shunt(pu)
% col9 B shunt(pu)
% col10 bus_type
%       bus_type - 1, swing bus
%                - 2, generator bus (PV bus)
%                - 3, load bus (PQ bus)
% col11 q_gen_max(pu)
% col12 q_gen_min(pu)
% col13 v_rated (kV)
% col14 v_max  pu
% col15 v_min  pu

% 171004 - Ryan's note: Changed the power flow due to new inertia distribution
% Bus 2 is now the slack bus.
bus = [...
    1.0000    1.0100   -7.8436    1.6800    0.2340         0        0  0.00  0.00 2  1.2   -2.0  22.0   1.1   0.9;
    2.0000    1.0100         0   12.3343    1.9995         0        0  0.00  0.00 1  8.75  -2.0  22.0   1.1   0.9;
    3.0000    0.9978  -19.9001         0         0         0        0  0.00  3.33 3  0.0    0.0  230.0  1.5   0.5;
    4.0000    1.0174  -22.5865         0         0    9.7600   1.0000  0.00  0.00 3  0.0    0.0  115.0  1.05  0.95;
   10.0000    1.0065   -9.4251         0         0         0        0  0.00  0.00 3  0.0    0.0  230.0  1.5   0.5;
   11.0000    1.0100  -32.8705    1.6800    0.3071         0        0  0.00  0.00 2  1.2   -2.0  22.0   1.1   0.9;
   12.0000    1.0100  -25.0255   12.3000    2.1789         0        0  0.00  0.00 2  8.75  -2.0  22.0   1.1   0.9;
   13.0000    0.9923  -44.9639         0         0         0        0  0.00  4.85 3  0.0    0.0  230.0  1.5   0.5;
   14.0000    1.0156  -49.8303         0         0   17.6500   1.0000  0.00  0.00 3  0.0    0.0  115.0  1.05  0.95;
   20.0000    0.9980  -11.7916         0         0         0        0  0.00  0.00 3  0.0    0.0  230.0  1.5   0.5;
  101.0000    1.0177  -32.6699         0         0         0        0  0.00  1.27 3  0.0    0.0  230.0  1.5   0.5;
  110.0000    1.0053  -34.4538         0         0         0        0  0.00  0.00 3  0.0    0.0  230.0  1.5   0.5;
  120.0000    0.9950  -36.8200         0         0         0        0  0.00  0.00 3  0.0    0.0  230.0  1.5   0.5;
];

% Original power flow
% bus = [...
%    1  1.01     18.5     7.2615 1.274  0.00  0.00  0.00  0.00 1  5.0  -2.0  22.0   1.1  .9;
%    2  1.01      7.725   7.00   1.948  0.00  0.00  0.00  0.00 2  5.0  -2.0  22.0   1.1  .9;
%    3  0.9791   -7.441   0.00   0.00   0.00  0.00  0.00  3.00 3  0.0   0.0  230.0  1.5  .5;
%    4  0.998   -10.232   0.00   0.00   9.76  1.00  0.00  0.00 3  0.0   0.0  115.0  1.05 .95;
%   10  0.9962   11.578   0.00   0.00   0.00  0.00  0.00  0.00 3  0.0   0.0  230.0  1.5  .5;
%   11  1.01     -9.0124  7.00   1.143  0.00  0.00  0.00  0.00 2  5.0  -2.0  22.0   1.1  .9;
%   12  1.01    -19.12    7.00   1.784  0.00  0.00  0.00  0.00 2  5.0  -2.0  22.0   1.1  .9;
%   13  0.9863  -34.063   0.00   0.00   0.00  0.00  0.00  5.00 3  0.0   0.0  230.0  1.5  .5;
%   14  1.0062  -39.02    0.00   0.00   17.65 1.00  0.00  0.00 3  0.0   0.0  115.0  1.05 .95;
%   20  0.9847    0.9748  0.00   0.00   0.00  0.00  0.00  0.00 3  0.0   0.0  230.0  1.5  .5;
%   101 1.0003  -21.054   0.00   0.00   0.00  0.00  0.00  1.27 3  0.0   0.0  230.0  1.5  .5;
%   110 0.9980  -15.69    0.00   0.00   0.00  0.00  0.00  0.00 3  0.0   0.0  230.0  1.5  .5;
%   120 0.9877  -25.87    0.00   0.00   0.00  0.00  0.00  0.00 3  0.0   0.0  230.0  1.5  .5;
% ];

% line data format
% line:
%      col1 	from bus
%      col2 	to bus
%      col3 	resistance(pu)
%      col4 	reactance(pu)
%      col5 	line charging(pu)
%      col6 	tap ratio
%      col7 	tap phase
%      col8 	tapmax
%      col9 	tapmin
%      col10	tapsize

line = [...
1   10  0.0     0.0167   0.00    1.0    0. 0.  0.  0.;
2   20  0.0     0.0167   0.00    1.0    0. 0.  0.  0.;
3    4  0.0     0.005    0.00    0.975  0. 1.2 0.8 0.00625;
3   20  0.001   0.0100   0.0175  1.0    0. 0.  0.  0.;
3   101 0.011   0.110    0.1925  1.0    0. 0.  0.  0.;
3   101 0.011   0.110    0.1925  1.0    0. 0.  0.  0.;
10  20  0.0025  0.025    0.0437  1.0    0. 0.  0.  0.;
11  110 0.0     0.0167   0.0     1.0    0. 0.  0.  0.;
12  120 0.0     0.0167   0.0     1.0    0. 0.  0.  0.;
13  101 0.011   0.11     0.1925  1.0    0. 0.  0.  0.;
13  101 0.011   0.11     0.1925  1.0    0. 0.  0.  0.;
13   14 0.0     0.005    0.00    0.9688 0. 1.2 0.8 0.00625;
13  120 0.001   0.01     0.0175  1.0    0. 0.  0.  0.;
110 120 0.0025  0.025    0.0437  1.0    0. 0.  0.  0.];

% Machine data format
%       1. machine number,
%       2. bus number,
%       3. base mva,
%       4. leakage reactance x_l(pu),
%       5. resistance r_a(pu),
%       6. d-axis sychronous reactance x_d(pu),
%       7. d-axis transient reactance x'_d(pu),
%       8. d-axis subtransient reactance x"_d(pu),
%       9. d-axis open-circuit time constant T'_do(sec),
%      10. d-axis open-circuit subtransient time constant
%                T"_do(sec),
%      11. q-axis sychronous reactance x_q(pu),
%      12. q-axis transient reactance x'_q(pu),
%      13. q-axis subtransient reactance x"_q(pu),
%      14. q-axis open-circuit time constant T'_qo(sec),
%      15. q-axis open circuit subtransient time constant
%                T"_qo(sec),
%      16. inertia constant H(sec),
%      17. damping coefficient d_o(pu),
%      18. damping coefficient d_1(pu),
%      19. bus number
%
% note: all the following machines use sub-transient model

% 171004 - Ryan's note: Redistributed the system inertia (via the MVA base)
% Reduced the inertia constant from 6.5 to 4.0

my_M = 4.5;
my_A = 0.05;
my_B = (0.5 - my_A);
my_A = 4*my_A;
my_B = 4*my_B;
mac_con = [...
% num bus  mva       xl    ra      xd   xdp   xdpp  tdop  tdopp  xq   xqp   xqpp  tqop  tqopp h     do dl bus  s1    s2
  1    1   900*my_A  0.20  0.0025  1.8  0.30  0.25  8.00  0.03   1.7  0.55  0.24  0.4   0.05  my_M  0  0   1   0.05  0.3;
  2    2   900*my_B  0.20  0.0025  1.8  0.30  0.25  8.00  0.03   1.7  0.55  0.24  0.4   0.05  my_M  0  0   2   0.05  0.3;
  3   11   900*my_A  0.20  0.0025  1.8  0.30  0.25  8.00  0.03   1.7  0.55  0.24  0.4   0.05  my_M  0  0  11   0.05  0.3;
  4   12   900*my_B  0.20  0.0025  1.8  0.30  0.25  8.00  0.03   1.7  0.55  0.24  0.4   0.05  my_M  0  0  12   0.05  0.3];

% Original ds2asbegp mac_con data
% mac_con = [ ...
%
% 1 1 900 0.200  0.00    1.8  0.30  0.25 8.00  0.03...
%                        1.7  0.55  0.24 0.4   0.05...
%                        6.5  0  0  1  0.0654  0.5743;
% 2 2 900 0.200  0.00    1.8  0.30  0.25 8.00  0.03...
%                        1.7  0.55  0.25 0.4   0.05...
%                        6.5  0  0  2  0.0654  0.5743;
% 3 11 900 0.200  0.00   1.8  0.30  0.25 8.00  0.03...
%                        1.7  0.55  0.24 0.4   0.05...
%                        6.5  0  0  3  0.0654  0.5743;
% 4 12 900 0.200  0.00   1.8  0.30  0.25 8.00  0.03...
%                        1.7  0.55  0.25 0.4   0.05...
%                        6.5  0  0  4  0.0654  0.5743];

% 171004 - Ryan's note: I am not sure what this switch does!
% mac_con(:,20:21)=zeros(4,2);

% 171005 - Ryan's note: Changed exciter gain from 200 to 100
exc_con = [...
0 1 0.02 100.0  0.05     0     0    5.0  -5.0...
    0    0      0     0     0    0    0      0      0    0   0;
0 2 0.02 100.0  0.05     0     0    5.0  -5.0...
    0    0      0     0     0    0    0      0      0    0   0;
0 3 0.02 100.0  0.05     0     0    5.0  -5.0...
    0    0      0     0     0    0    0      0      0    0   0;
0 4 0.02 100.0  0.05     0     0    5.0  -5.0...
    0    0      0     0     0    0    0      0      0    0   0];

% simple exciter model, type 0; there are three exciter models
% exc_con = [...
% 0 1 0.01 200.0  0.05     0     0    5.0  -5.0...
%     0    0      0     0     0    0    0      0      0    0   0;
% 0 2 0.01 200.0  0.05     0     0    5.0  -5.0...
%     0    0      0     0     0    0    0      0      0    0   0;
% 0 3 0.01 200.0  0.05     0     0    5.0  -5.0...
%     0    0      0     0     0    0    0      0      0    0   0;
% 0 4 0.01 200.0  0.05     0     0    5.0  -5.0...
%     0    0      0     0     0    0    0      0      0    0   0];

% power system stabilizer model
%	col1	type 1 speed input; 2 power input
%	col2	generator number
%	col3	pssgain*washout time constant
%	col4	washout time constant
%	col5	first lead time constant
%	col6	first lag time constant
%	col7	second lead time constant
%	col8	second lag time constant
% 	col9	maximum output limit
%	col10	minimum output limit

% 171005 - Ryan's note: Reduced PSS gain from 10 to 7
% 190115 - For time-domain simulations, the PSS type of the tripped unit
%          must not be 3. 
my_Tw = 10;
my_Kp = 1;  % MUST BE UNITY. PSS gains are set within the PSS file
pss_con = [
     3  1  my_Kp*my_Tw  my_Tw  0.10 0.01 0.08 0.008 0.2 -0.05;
     3  2  my_Kp*my_Tw  my_Tw  0.10 0.01 0.08 0.008 0.2 -0.05;
     1  3  my_Kp*my_Tw  my_Tw  0.10 0.01 0.08 0.008 0.2 -0.05;
     3  4  my_Kp*my_Tw  my_Tw  0.10 0.01 0.08 0.008 0.2 -0.05];

% Original PSS models
% pss_con = [...
%      1  1  100  10 0.05 0.01 0.05 0.01 0.2 -0.05;
%      1  2  100  10 0.05 0.01 0.05 0.01 0.2 -0.05;
%      1  3  100  10 0.05 0.01 0.05 0.01 0.2 -0.05;
%      1  4  100  10 0.05 0.01 0.05 0.01 0.2 -0.05
%  ];
% pss_con = [];

% governor model
% tg_con matrix format
%column	       data			unit
%  1	turbine model number (=1)
%  2	machine number
%  3	speed set point   wf		pu
%  4	steady state gain 1/R		pu
%  5	maximum power order  Tmax	pu on generator base
%  6	servo time constant   Ts	sec
%  7	governor time constant  Tc	sec
%  8	transient gain time constant T3	sec
%  9	HP section time constant   T4	sec
% 10	reheater time constant    T5	sec

% 171005 - Ryan's note: Changed steady state gain from 25 to 20
my_Rg = 0.05;  % droop constant
my_Kg = 1/my_Rg;
tg_con = [...
1  1  1  my_Kg  1.0  0.1  0.5  0.0  1.25  5.0;
1  2  1  my_Kg  1.0  0.1  0.5  0.0  1.25  5.0;
1  3  1  my_Kg  1.0  0.1  0.5  0.0  1.25  5.0;
1  4  1  my_Kg  1.0  0.1  0.5  0.0  1.25  5.0;
];

% Original governor models
% tg_con = [...
% 1  1  1  25.0  1.0  0.1  0.5 0.0 1.25 5.0;
% 1  2  1  25.0  1.0  0.1  0.5 0.0 1.25 5.0;
% 1  3  1  25.0  1.0  0.1  0.5 0.0 1.25 5.0;
% 1  4  1  25.0  1.0  0.1  0.5 0.0 1.25 5.0;
% ];

% Induction motor data
% 1. Motor Number
% 2. Bus Number
% 3. Motor MVA Base
% 4. rs pu
% 5. xs pu - stator leakage reactance
% 6. Xm pu - magnetizing reactance
% 7. rr pu
% 8. xr pu - rotor leakage reactance
% 9. H  s  - motor plus load inertia constant
% 10. rr1 pu - second cage resistance
% 11. xr1 pu - intercage reactance
% 12. dbf    - deepbar factor
% 13. isat pu - saturation current
% 15. fraction of bus power drawn by motor ( if zero motor statrts at t=0)

ind_con = [];
% Motor Load Data
% format for motor load data - mld_con
% 1 motor number
% 2 bus number
% 3 stiction load pu on motor base (f1)
% 4 stiction load coefficient (i1)
% 5 external load  pu on motor base(f2)
% 6 external load coefficient (i2)
%
% load has the form
% tload = f1*slip^i1 + f2*(1-slip)^i2
mld_con = [];

% 	col1	bus number
%	col2 	proportion of constant active power load
%	col3	proportion of constant reactive power load
%	col4 	proportion of constant active current load
%	col5	proportion of constant reactive current load
load_con = [4  0  0  0.5  0;%constant impedance 
            14 0  0  0.5  0];
disp('50% constant current load')
%disp('load modulation')
%active and reactive load modulation enabled
% 	col1	load number
%	col2	bus number
%	col3	MVA rating
%	col4	maximum output limit pu
%	col4	minimum output limit pu
%	col6	Time constant
lmod_con = [...
1 4  100 1 -1 1 0.05;
2 14 100 1 -1 1 0.05;
];
%lmod_con = [];
rlmod_con = [...
1 4   100 1  -1  1  0.05;
2 14  100 1  -1  1  0.05;
];
%rlmod_con = [];

%----------------------------------------------------------------------------%
% Monitored lines
%
% When conducting an eigenanalysis, initializing lmon_con causes the
% following variables to be created: c_pf1, c_pf2, c_qf1, c_qf2, c_ilif,
% c_ilit, c_ilmf, c_ilmt, c_ilrf, c_ilrt. The ith row of c_pf1 and c_qf1
% correspond to line(lmon_con(i),:) of the line matrix.

lmon_con = [1:size(line,1)];  % All lines

%Switching file defines the simulation control
% row 1 col1  simulation start time (s) (cols 2 to 6 zeros)
%       col7  initial time step (s)
% row 2 col1  fault application time (s)
%       col2  bus number at which fault is applied
%       col3  bus number defining far end of faulted line
%       col4  zero sequence impedance in pu on system base
%       col5  negative sequence impedance in pu on system base
%       col6  type of fault  - 0 three phase
%                            - 1 line to ground
%                            - 2 line-to-line to ground
%                            - 3 line-to-line
%                            - 4 loss of line with no fault
%                            - 5 loss of load at bus
%                            - 6 no action
%                            - 7 three phase fault without loss of line
%                            - 8 three phase fault with nonzero impedance
%       col7  time step for fault period (s)
%       col8  shunt conductance (pu)
% row 3 col1  near end fault clearing time (s) (cols 2 to 6 zeros)
%       col7  time step for second part of fault (s)
% row 4 col1  far end fault clearing time (s) (cols 2 to 6 zeros)
%       col7  time step for fault cleared simulation (s)
% row 5 col1  time to change step length (s)
%       col7  time step (s)
%
%
%
% row n col1 finishing time (s)  (n indicates that intermediate rows may be inserted)

% Generation trip, Unit 3
my_Ts = 1/(60*8);
sw_con = [...
 0.0     0    0    0    0    0    my_Ts    0    ;   % sets intitial time step
 1.0    11  110    0    0    4    my_Ts    0    ;   % gen trip
 1.5     0    0    0    0    0    my_Ts    0    ;   % clear near end
 1.51    0    0    0    0    0    my_Ts    0    ;   % clear remote end
20.0     0    0    0    0    0    my_Ts    0    ];  % end simulation

% Brake insertion
% my_Ts = 1/(60*8);
% sw_con = [...
%  0.0   0    0    0    0    0    my_Ts    0    ;   % sets intitial time step
%  1.0   101  3    0    0    8    my_Ts    0.1  ;   % brake insertion
%  1.5   0    0    0    0    0    my_Ts    0    ;   % clear near end
%  1.51  0    0    0    0    0    my_Ts    0    ;   % clear remote end
% 20.0   0    0    0    0    0    my_Ts    0    ];  % end simulation

%fpos=60;
%ibus_con = [0 1 1 1];  % sets generators 2, 3 and 4 to be infinite buses
%                         behind source impedance in small signal stability model
